---- qbsp / ericw-tools v0.18.1 ----
Input file: Metrics_and_EnemyTestLevel.map
Output file: Metrics_and_EnemyTestLevel.bsp

---- LoadMapFile ----
*** WARNING 06: No info_player_deathmatch entities in level
          156 faces
           26 brushes
            7 entities
            5 unique texnames
           50 texinfo

Opened WAD: C:/QuakeDev/wads/prototype_1_3.wad
Processing hull 0...
---- Brush_LoadEntity ----
           26 brushes
           68 planes
---- CSGFaces ----
          156 brushfaces
          222 csgfaces
          201 mergedfaces
---- SolidBSP ----
          310 split nodes
          114 solid leafs
          195 empty leafs
            2 water leafs
            0 detail leafs
            0 detail illusionary leafs
            0 detail fence leafs
            0 illusionary visblocker leafs
          729 leaffaces
          701 nodefaces
---- Portalize ----
          197 vis leafs
          197 vis clusters
          482 vis portals
---- FillOutside ----
*** WARNING 10: Reached occupant at (144 -864 -8), no filling performed.
Leak file written to Metrics_and_EnemyTestLevel.pts
---- MakeFaceEdges ----
---- GrowRegions ----
Processing hull 1...
*** WARNING 19: No entities in empty space -- no filling performed (hull 1)
Processing hull 2...
*** WARNING 19: No entities in empty space -- no filling performed (hull 2)
---- WriteBSPFile ----
Wrote Metrics_and_EnemyTestLevel.bsp
          146 planes             2920
          895 vertexes          10740
          310 nodes              7440
           42 texinfo            1680
          701 faces             14020
          553 clipnodes          4424
          198 leafs              5544
          729 marksurfaces       1458
         2804 surfedges         11216
         1821 edges              7284
            5 textures          31504
              lightdata             0
              visdata               0
              entdata             443

0.060 seconds elapsed
Peak memory usage: 3125274 (3.0M)
