---- qbsp / ericw-tools v0.18.1 ----
Input file: Metrics_and_EnemyTestLevel.map
Output file: Metrics_and_EnemyTestLevel.bsp

---- LoadMapFile ----
*** WARNING 06: No info_player_deathmatch entities in level
          150 faces
           25 brushes
            5 entities
            5 unique texnames
           36 texinfo

Opened WAD: C:/QuakeDev/wads/prototype_1_3.wad
Processing hull 0...
---- Brush_LoadEntity ----
           25 brushes
           64 planes
---- CSGFaces ----
          150 brushfaces
          211 csgfaces
          191 mergedfaces
---- SolidBSP ----
          276 split nodes
          101 solid leafs
          174 empty leafs
            2 water leafs
            0 detail leafs
            0 detail illusionary leafs
            0 detail fence leafs
            0 illusionary visblocker leafs
          705 leaffaces
          673 nodefaces
---- Portalize ----
          176 vis leafs
          176 vis clusters
          433 vis portals
---- FillOutside ----
*** WARNING 10: Reached occupant at (-480 -528 -8), no filling performed.
Leak file written to Metrics_and_EnemyTestLevel.pts
---- MakeFaceEdges ----
---- GrowRegions ----
Processing hull 1...
*** WARNING 19: No entities in empty space -- no filling performed (hull 1)
Processing hull 2...
*** WARNING 19: No entities in empty space -- no filling performed (hull 2)
---- WriteBSPFile ----
Wrote Metrics_and_EnemyTestLevel.bsp
          137 planes             2740
          861 vertexes          10332
          276 nodes              6624
           33 texinfo            1320
          673 faces             13460
          502 clipnodes          4016
          177 leafs              4956
          705 marksurfaces       1410
         2692 surfedges         10768
         1738 edges              6952
            5 textures          31504
              lightdata             0
              visdata               0
              entdata             329

0.059 seconds elapsed
Peak memory usage: 2940926 (2.8M)
