---- qbsp / ericw-tools v0.18.1 ----
Input file: Sleepy_Swamp.map
Output file: Sleepy_Swamp.bsp

---- LoadMapFile ----
*** WARNING 06: No info_player_deathmatch entities in level
         2587 faces
          279 brushes
          115 entities
           14 unique texnames
         1588 texinfo

Opened WAD: ../wads/prototype_1_3.wad
Processing hull 0...
---- Brush_LoadEntity ----
*** WARNING 22: Healing degenerate edge (0.000037) at (2816.865 1648.000 304.000)
          249 brushes
         1813 planes
---- CSGFaces ----
         2404 brushfaces
         9408 csgfaces
         6016 mergedfaces
---- SolidBSP ----
         7705 split nodes
         2708 solid leafs
         4401 empty leafs
          597 water leafs
            0 detail leafs
            0 detail illusionary leafs
            0 detail fence leafs
            0 illusionary visblocker leafs
        17664 leaffaces
        15503 nodefaces
---- Portalize ----
         4998 vis leafs
         4998 vis clusters
        17155 vis portals
---- FillOutside ----
*** WARNING 10: Reached occupant at (217 -374 72), no filling performed.
Leak file written to Sleepy_Swamp.pts
---- MakeFaceEdges ----
---- GrowRegions ----
Processing hull 1...
*** WARNING 22: Healing degenerate edge (0.000030) at (2732.928 2659.754 -28.983)
*** WARNING 22: Healing degenerate edge (0.000005) at (1152.000 1392.002 304.000)
*** WARNING 22: Healing degenerate edge (0.000041) at (1152.000 1392.002 304.000)
*** WARNING 22: Healing degenerate edge (0.000037) at (2816.865 1648.000 304.000)
*** WARNING 10: Reached occupant at (217 -374 72), no filling performed.
Processing hull 2...
*** WARNING 22: Healing degenerate edge (0.000030) at (2748.928 2643.754 -60.983)
*** WARNING 22: Healing degenerate edge (0.000005) at (1136.000 1376.002 272.000)
*** WARNING 22: Healing degenerate edge (0.000041) at (1136.000 1376.002 272.000)
*** WARNING 22: Healing degenerate edge (0.000037) at (2816.865 1648.000 304.000)
*** WARNING 10: Reached occupant at (217 -374 72), no filling performed.
*** WARNING 16: Texture __TB_empty not found
---- WriteBSPFile ----
Wrote Sleepy_Swamp.bsp
         5339 planes           106780
        17671 vertexes         212052
         7888 nodes            189312
         1282 texinfo           51280
        15738 faces            314760
        14270 clipnodes        114160
         5182 leafs            145096
        17899 marksurfaces      35798
        61417 surfedges        245668
        41626 edges            166504
           16 textures         177468
              lightdata             0
              visdata               0
              entdata            8499

0.798 seconds elapsed
Peak memory usage: 78574798 (74.9M)
