---- qbsp / ericw-tools v0.18.1 ----
Input file: Sleepy_Swamp.map
Output file: Sleepy_Swamp.bsp

---- LoadMapFile ----
*** WARNING 06: No info_player_deathmatch entities in level
         2605 faces
          282 brushes
          118 entities
           14 unique texnames
         1607 texinfo

Opened WAD: ../wads/prototype_1_3.wad
Processing hull 0...
---- Brush_LoadEntity ----
*** WARNING 22: Healing degenerate edge (0.000037) at (2816.865 1648.000 304.000)
          250 brushes
         1813 planes
---- CSGFaces ----
         2410 brushfaces
         9441 csgfaces
         6042 mergedfaces
---- SolidBSP ----
         7699 split nodes
         2708 solid leafs
         4391 empty leafs
          601 water leafs
            0 detail leafs
            0 detail illusionary leafs
            0 detail fence leafs
            0 illusionary visblocker leafs
        17678 leaffaces
        15541 nodefaces
---- Portalize ----
         4992 vis leafs
         4992 vis clusters
        17128 vis portals
---- FillOutside ----
*** WARNING 10: Reached occupant at (217 -374 72), no filling performed.
Leak file written to Sleepy_Swamp.pts
---- MakeFaceEdges ----
---- GrowRegions ----
Processing hull 1...
*** WARNING 22: Healing degenerate edge (0.000030) at (2732.928 2659.754 -28.983)
*** WARNING 22: Healing degenerate edge (0.000005) at (1152.000 1392.002 304.000)
*** WARNING 22: Healing degenerate edge (0.000041) at (1152.000 1392.002 304.000)
*** WARNING 22: Healing degenerate edge (0.000037) at (2816.865 1648.000 304.000)
*** WARNING 10: Reached occupant at (217 -374 72), no filling performed.
Processing hull 2...
*** WARNING 22: Healing degenerate edge (0.000030) at (2748.928 2643.754 -60.983)
*** WARNING 22: Healing degenerate edge (0.000005) at (1136.000 1376.002 272.000)
*** WARNING 22: Healing degenerate edge (0.000041) at (1136.000 1376.002 272.000)
*** WARNING 22: Healing degenerate edge (0.000037) at (2816.865 1648.000 304.000)
*** WARNING 10: Reached occupant at (217 -374 72), no filling performed.
*** WARNING 16: Texture __TB_empty not found
---- WriteBSPFile ----
Wrote Sleepy_Swamp.bsp
         5358 planes           107160
        17731 vertexes         212772
         7894 nodes            189456
         1300 texinfo           52000
        15788 faces            315760
        14310 clipnodes        114480
         5188 leafs            145264
        17925 marksurfaces      35850
        61621 surfedges        246484
        41781 edges            167124
           16 textures         177468
              lightdata             0
              visdata               0
              entdata            8882

0.716 seconds elapsed
Peak memory usage: 78708810 (75.1M)
