---- qbsp / ericw-tools v0.18.1 ----
Input file: Sleepy_Swamp.map
Output file: Sleepy_Swamp.bsp

---- LoadMapFile ----
*** WARNING 06: No info_player_deathmatch entities in level
           36 faces
            6 brushes
            3 entities
            1 unique texnames
           12 texinfo

*** WARNING 00: No wad or _wad key exists in the worldmodel
Processing hull 0...
---- Brush_LoadEntity ----
            6 brushes
           19 planes
---- CSGFaces ----
           36 brushfaces
           46 csgfaces
           46 mergedfaces
---- SolidBSP ----
           53 split nodes
           16 solid leafs
           38 empty leafs
            0 water leafs
            0 detail leafs
            0 detail illusionary leafs
            0 detail fence leafs
            0 illusionary visblocker leafs
          249 leaffaces
          249 nodefaces
---- Portalize ----
           38 vis leafs
           38 vis clusters
           85 vis portals
---- FillOutside ----
           37 outleafs
---- MergeAll ----
            6 mergefaces
---- SolidBSP ----
            6 split nodes
            6 solid leafs
            1 empty leafs
            0 water leafs
            0 detail leafs
            0 detail illusionary leafs
            0 detail fence leafs
            0 illusionary visblocker leafs
           38 leaffaces
           38 nodefaces
---- Portalize ----
            1 vis leafs
            1 vis clusters
            0 vis portals
---- Tjunc ----
           32 world edges
          112 edge points
            8 edges added by tjunctions
            0 faces added by tjunctions
---- MakeFaceEdges ----
---- GrowRegions ----
Processing hull 1...
*** WARNING 19: No entities in empty space -- no filling performed (hull 1)
Processing hull 2...
*** WARNING 19: No entities in empty space -- no filling performed (hull 2)
*** WARNING 16: Texture __TB_empty not found
---- WriteBSPFile ----
Wrote Sleepy_Swamp.bsp
           40 planes              800
           44 vertexes            528
            6 nodes               144
            6 texinfo             240
           38 faces               760
          136 clipnodes          1088
            2 leafs                56
           38 marksurfaces         76
          160 surfedges           640
           81 edges               324
            1 textures              8
              lightdata             0
              visdata               0
              entdata             180

0.036 seconds elapsed
Peak memory usage: 649092 (0.6M)
