---- qbsp / ericw-tools v0.18.1 ----
Input file: Sleepy_Swamp.map
Output file: Sleepy_Swamp.bsp

---- LoadMapFile ----
*** WARNING 06: No info_player_deathmatch entities in level
         2940 faces
          299 brushes
          259 entities
           32 unique texnames
         1986 texinfo

Opened WAD: ../wads/prototype_1_3.wad
Opened WAD: ../wads/Jungle.wad
Opened WAD: ../wads/rogue.wad
Processing hull 0...
---- Brush_LoadEntity ----
*** WARNING 08: Point (1945.000 1665.000 272.000) off plane by -0.0001
*** WARNING 22: Healing degenerate edge (0.000037) at (2816.865 1648.000 304.000)
          263 brushes
         2131 planes
---- CSGFaces ----
         2721 brushfaces
         9943 csgfaces
         6440 mergedfaces
---- SolidBSP ----
        10105 split nodes
         3574 solid leafs
         5859 empty leafs
          673 water leafs
            0 detail leafs
            0 detail illusionary leafs
            0 detail fence leafs
            0 illusionary visblocker leafs
        20538 leaffaces
        18258 nodefaces
---- Portalize ----
*** WARNING 12: New portal was clipped away in CutNodePortals_r near (2666.028 1497.937 255.738)
*** WARNING 12: New portal was clipped away in CutNodePortals_r near (1273.148 1403.619 336.000)
         6532 vis leafs
         6532 vis clusters
        22925 vis portals
---- FillOutside ----
*** WARNING 10: Reached occupant at (108 40 192), no filling performed.
Leak file written to Sleepy_Swamp.pts
---- MakeFaceEdges ----
---- GrowRegions ----
Processing hull 1...
*** WARNING 22: Healing degenerate edge (0.000032) at (2732.928 2659.754 -28.983)
*** WARNING 08: Point (1945.000 1665.000 272.000) off plane by -0.0001
*** WARNING 22: Healing degenerate edge (0.000005) at (1152.000 1392.002 304.000)
*** WARNING 22: Healing degenerate edge (0.000041) at (1152.000 1392.002 304.000)
*** WARNING 22: Healing degenerate edge (0.000037) at (2816.865 1648.000 304.000)
*** WARNING 10: Reached occupant at (108 40 192), no filling performed.
Processing hull 2...
*** WARNING 22: Healing degenerate edge (0.000032) at (2748.928 2643.754 -60.983)
*** WARNING 08: Point (1945.000 1665.000 272.000) off plane by -0.0001
*** WARNING 22: Healing degenerate edge (0.000005) at (1136.000 1376.002 272.000)
*** WARNING 22: Healing degenerate edge (0.000041) at (1136.000 1376.002 272.000)
*** WARNING 22: Healing degenerate edge (0.000037) at (2816.865 1648.000 304.000)
*** WARNING 10: Reached occupant at (108 40 192), no filling performed.
*** WARNING 16: Texture __TB_empty not found
---- WriteBSPFile ----
Wrote Sleepy_Swamp.bsp
         6452 planes           129040
        21072 vertexes         252864
        10324 nodes            247776
         1637 texinfo           65480
        18533 faces            370660
        17693 clipnodes        141544
         6752 leafs            189056
        20813 marksurfaces      41626
        72321 surfedges        289284
        48131 edges            192524
           39 textures         584100
              lightdata             0
              visdata               0
              entdata           17984

0.830 seconds elapsed
Peak memory usage: 93605490 (89.3M)
