---- qbsp / ericw-tools v0.18.1 ----
Input file: Sleepy_Swamp.map
Output file: Sleepy_Swamp.bsp

---- LoadMapFile ----
*** WARNING 06: No info_player_deathmatch entities in level
         2928 faces
          299 brushes
          256 entities
           32 unique texnames
         1980 texinfo

Opened WAD: ../wads/prototype_1_3.wad
Opened WAD: ../wads/Jungle.wad
Opened WAD: ../wads/rogue.wad
Processing hull 0...
---- Brush_LoadEntity ----
*** WARNING 22: Healing degenerate edge (0.000037) at (2816.865 1648.000 304.000)
          263 brushes
         2119 planes
---- CSGFaces ----
         2709 brushfaces
         9859 csgfaces
         6408 mergedfaces
---- SolidBSP ----
         9359 split nodes
         3262 solid leafs
         5432 empty leafs
          666 water leafs
            0 detail leafs
            0 detail illusionary leafs
            0 detail fence leafs
            0 illusionary visblocker leafs
        19397 leaffaces
        17223 nodefaces
---- Portalize ----
*** WARNING 12: New portal was clipped away in CutNodePortals_r near (1273.148 1403.619 336.000)
         6098 vis leafs
         6098 vis clusters
        21327 vis portals
---- FillOutside ----
*** WARNING 10: Reached occupant at (108 40 192), no filling performed.
Leak file written to Sleepy_Swamp.pts
---- MakeFaceEdges ----
---- GrowRegions ----
Processing hull 1...
*** WARNING 22: Healing degenerate edge (0.000032) at (2732.928 2659.754 -28.983)
*** WARNING 22: Healing degenerate edge (0.000005) at (1152.000 1392.002 304.000)
*** WARNING 22: Healing degenerate edge (0.000041) at (1152.000 1392.002 304.000)
*** WARNING 22: Healing degenerate edge (0.000037) at (2816.865 1648.000 304.000)
*** WARNING 10: Reached occupant at (108 40 192), no filling performed.
Processing hull 2...
*** WARNING 22: Healing degenerate edge (0.000032) at (2748.928 2643.754 -60.983)
*** WARNING 22: Healing degenerate edge (0.000005) at (1136.000 1376.002 272.000)
*** WARNING 22: Healing degenerate edge (0.000041) at (1136.000 1376.002 272.000)
*** WARNING 22: Healing degenerate edge (0.000037) at (2816.865 1648.000 304.000)
*** WARNING 10: Reached occupant at (108 40 192), no filling performed.
*** WARNING 16: Texture __TB_empty not found
---- WriteBSPFile ----
Wrote Sleepy_Swamp.bsp
         6414 planes           128280
        19767 vertexes         237204
         9578 nodes            229872
         1631 texinfo           65240
        17498 faces            349960
        17592 clipnodes        140736
         6318 leafs            176904
        19672 marksurfaces      39344
        68200 surfedges        272800
        45741 edges            182964
           35 textures         600244
              lightdata             0
              visdata               0
              entdata           17772

0.836 seconds elapsed
Peak memory usage: 91377656 (87.1M)
