---- qbsp / ericw-tools v0.18.1 ----
Input file: Sleepy_Swamp.map
Output file: Sleepy_Swamp.bsp

---- LoadMapFile ----
*** WARNING 06: No info_player_deathmatch entities in level
          992 faces
          144 brushes
           56 entities
           10 unique texnames
          541 texinfo

Opened WAD: ../wads/prototype_1_3.wad
Processing hull 0...
---- Brush_LoadEntity ----
          134 brushes
          513 planes
---- CSGFaces ----
          932 brushfaces
         2563 csgfaces
         1871 mergedfaces
---- SolidBSP ----
         2519 split nodes
          976 solid leafs
         1420 empty leafs
          124 water leafs
            0 detail leafs
            0 detail illusionary leafs
            0 detail fence leafs
            0 illusionary visblocker leafs
         5494 leaffaces
         4901 nodefaces
---- Portalize ----
         1544 vis leafs
         1544 vis clusters
         4798 vis portals
---- FillOutside ----
*** WARNING 10: Reached occupant at (208 -432 56), no filling performed.
Leak file written to Sleepy_Swamp.pts
---- MakeFaceEdges ----
---- GrowRegions ----
Processing hull 1...
*** WARNING 10: Reached occupant at (208 -432 56), no filling performed.
Processing hull 2...
*** WARNING 10: Reached occupant at (208 -432 56), no filling performed.
---- WriteBSPFile ----
Wrote Sleepy_Swamp.bsp
         1423 planes            28460
         5911 vertexes          70932
         2579 nodes             61896
          457 texinfo           18280
         4989 faces             99780
         4378 clipnodes         35024
         1605 leafs             44940
         5582 marksurfaces      11164
        19740 surfedges         78960
        13203 edges             52812
           12 textures         132452
              lightdata             0
              visdata               0
              entdata            4261

0.227 seconds elapsed
Peak memory usage: 24023136 (22.9M)
