---- qbsp / ericw-tools v0.18.1 ----
Input file: Sleepy_Swamp.map
Output file: Sleepy_Swamp.bsp

---- LoadMapFile ----
*** WARNING 06: No info_player_deathmatch entities in level
         1096 faces
          153 brushes
           58 entities
           12 unique texnames
          581 texinfo

Opened WAD: ../wads/prototype_1_3.wad
Processing hull 0...
---- Brush_LoadEntity ----
          140 brushes
          592 planes
---- CSGFaces ----
         1018 brushfaces
         3099 csgfaces
         2251 mergedfaces
---- SolidBSP ----
         2928 split nodes
         1069 solid leafs
         1606 empty leafs
          254 water leafs
            0 detail leafs
            0 detail illusionary leafs
            0 detail fence leafs
            0 illusionary visblocker leafs
         6625 leaffaces
         5923 nodefaces
---- Portalize ----
         1860 vis leafs
         1860 vis clusters
         6096 vis portals
---- FillOutside ----
*** WARNING 10: Reached occupant at (208 -432 56), no filling performed.
Leak file written to Sleepy_Swamp.pts
---- MakeFaceEdges ----
---- GrowRegions ----
Processing hull 1...
*** WARNING 10: Reached occupant at (336 384 48), no filling performed.
Processing hull 2...
*** WARNING 10: Reached occupant at (1328 -288 -56), no filling performed.
---- WriteBSPFile ----
Wrote Sleepy_Swamp.bsp
         1680 planes            33600
         6693 vertexes          80316
         3006 nodes             72144
          494 texinfo           19760
         6025 faces            120500
         4933 clipnodes         39464
         1939 leafs             54292
         6727 marksurfaces      13454
        23804 surfedges         95216
        15900 edges             63600
           14 textures         176060
              lightdata             0
              visdata               0
              entdata            4363

0.268 seconds elapsed
Peak memory usage: 27361754 (26.1M)
