---- qbsp / ericw-tools v0.18.1 ----
Input file: Sleepy_Swamp.map
Output file: Sleepy_Swamp.bsp

---- LoadMapFile ----
*** WARNING 06: No info_player_deathmatch entities in level
          378 faces
           46 brushes
            4 entities
            4 unique texnames
          231 texinfo

Opened WAD: ../wads/prototype_1_3.wad
Processing hull 0...
---- Brush_LoadEntity ----
           46 brushes
          260 planes
---- CSGFaces ----
          378 brushfaces
          870 csgfaces
          667 mergedfaces
---- SolidBSP ----
          812 split nodes
          248 solid leafs
          521 empty leafs
           44 water leafs
            0 detail leafs
            0 detail illusionary leafs
            0 detail fence leafs
            0 illusionary visblocker leafs
         1739 leaffaces
         1610 nodefaces
---- Portalize ----
          565 vis leafs
          565 vis clusters
         1930 vis portals
---- FillOutside ----
*** WARNING 10: Reached occupant at (2976 688 -8), no filling performed.
Leak file written to Sleepy_Swamp.pts
---- MakeFaceEdges ----
---- GrowRegions ----
Processing hull 1...
*** WARNING 12: New portal was clipped away in CutNodePortals_r near (1558.363 352.000 24.000)
*** WARNING 19: No entities in empty space -- no filling performed (hull 1)
Processing hull 2...
*** WARNING 19: No entities in empty space -- no filling performed (hull 2)
---- WriteBSPFile ----
Wrote Sleepy_Swamp.bsp
          864 planes            17280
         1843 vertexes          22116
          812 nodes             19488
          206 texinfo            8240
         1610 faces             32200
         1821 clipnodes         14568
          566 leafs             15848
         1739 marksurfaces       3478
         6299 surfedges         25196
         4245 edges             16980
            4 textures          70900
              lightdata             0
              visdata               0
              entdata             155

0.100 seconds elapsed
Peak memory usage: 9114598 (8.7M)
