---- qbsp / ericw-tools v0.18.1 ----
Input file: Sleepy_Swamp.map
Output file: Sleepy_Swamp.bsp

---- LoadMapFile ----
*** WARNING 06: No info_player_deathmatch entities in level
         2536 faces
          273 brushes
          111 entities
           14 unique texnames
         1605 texinfo

Opened WAD: ../wads/prototype_1_3.wad
Processing hull 0...
---- Brush_LoadEntity ----
*** WARNING 22: Healing degenerate edge (0.000037) at (2816.865 1648.000 304.000)
          247 brushes
         1790 planes
---- CSGFaces ----
         2377 brushfaces
         9150 csgfaces
         5963 mergedfaces
---- SolidBSP ----
         7566 split nodes
         2606 solid leafs
         4348 empty leafs
          613 water leafs
            0 detail leafs
            0 detail illusionary leafs
            0 detail fence leafs
            0 illusionary visblocker leafs
        17602 leaffaces
        15452 nodefaces
---- Portalize ----
         4961 vis leafs
         4961 vis clusters
        17048 vis portals
---- FillOutside ----
*** WARNING 10: Reached occupant at (473 185 24), no filling performed.
Leak file written to Sleepy_Swamp.pts
---- MakeFaceEdges ----
---- GrowRegions ----
Processing hull 1...
*** WARNING 22: Healing degenerate edge (0.000030) at (2732.928 2659.754 -28.983)
*** WARNING 22: Healing degenerate edge (0.000005) at (1152.000 1392.002 304.000)
*** WARNING 22: Healing degenerate edge (0.000041) at (1152.000 1392.002 304.000)
*** WARNING 22: Healing degenerate edge (0.000037) at (2816.865 1648.000 304.000)
*** WARNING 12: New portal was clipped away in CutNodePortals_r near (2076.090 1639.290 332.867)
*** WARNING 10: Reached occupant at (336 384 48), no filling performed.
Processing hull 2...
*** WARNING 22: Healing degenerate edge (0.000030) at (2748.928 2643.754 -60.983)
*** WARNING 22: Healing degenerate edge (0.000005) at (1136.000 1376.002 272.000)
*** WARNING 22: Healing degenerate edge (0.000041) at (1136.000 1376.002 272.000)
*** WARNING 22: Healing degenerate edge (0.000037) at (2816.865 1648.000 304.000)
*** WARNING 10: Reached occupant at (1344 -32 -40), no filling performed.
*** WARNING 16: Texture __TB_empty not found
---- WriteBSPFile ----
Wrote Sleepy_Swamp.bsp
         5221 planes           104420
        17411 vertexes         208932
         7725 nodes            185400
         1303 texinfo           52120
        15655 faces            313100
        13824 clipnodes        110592
         5121 leafs            143388
        17805 marksurfaces      35610
        61113 surfedges        244452
        41281 edges            165124
           16 textures         177468
              lightdata             0
              visdata               0
              entdata            8139

0.648 seconds elapsed
Peak memory usage: 77341710 (73.8M)
